Version 4
SHEET 1 1292 680
WIRE -720 -224 -816 -224
WIRE -544 -224 -640 -224
WIRE -1056 -160 -1184 -160
WIRE -688 -128 -688 -144
WIRE -1328 -96 -1632 -96
WIRE -1104 -96 -1184 -96
WIRE -688 -96 -688 -128
WIRE -1056 -80 -1056 -160
WIRE -1024 -80 -1056 -80
WIRE -720 -80 -944 -80
WIRE -544 -64 -544 -224
WIRE -544 -64 -656 -64
WIRE -192 -64 -544 -64
WIRE -720 -48 -752 -48
WIRE -1632 -32 -1632 -96
WIRE -752 0 -752 -48
WIRE -1024 16 -1056 16
WIRE -816 16 -816 -224
WIRE -816 16 -944 16
WIRE -688 16 -688 -32
WIRE -688 32 -688 16
WIRE -272 48 -272 32
WIRE -1632 96 -1632 48
WIRE -272 112 -272 48
WIRE -272 208 -272 192
WIRE -272 208 -368 208
WIRE -368 240 -368 208
WIRE -272 256 -272 208
WIRE -1152 272 -1184 272
WIRE -720 320 -800 320
WIRE -560 320 -640 320
WIRE -1328 336 -1632 336
WIRE -1056 336 -1056 16
WIRE -1056 336 -1184 336
WIRE -272 384 -272 336
WIRE -272 400 -272 384
WIRE -688 416 -688 400
WIRE -1632 432 -1632 336
WIRE -688 448 -688 416
WIRE -1104 464 -1104 -96
WIRE -1024 464 -1104 464
WIRE -800 464 -800 320
WIRE -800 464 -944 464
WIRE -720 464 -800 464
WIRE -560 480 -560 320
WIRE -560 480 -656 480
WIRE -240 480 -560 480
WIRE -720 496 -736 496
WIRE -736 544 -736 496
WIRE -688 544 -688 512
WIRE -1632 560 -1632 512
WIRE -1152 560 -1152 272
WIRE -1040 560 -1152 560
WIRE -800 560 -800 464
WIRE -800 560 -960 560
WIRE -688 560 -688 544
FLAG -1632 96 0
FLAG -1632 560 0
FLAG -1328 -64 0
FLAG -1328 368 0
FLAG -736 544 0
FLAG -752 0 0
FLAG -368 240 0
FLAG -688 416 Vcc
FLAG -272 48 Vcc
FLAG -688 -128 Vcc
FLAG -688 16 Vee
FLAG -688 544 Vee
FLAG -272 384 Vee
FLAG -192 -64 LSBoutput
FLAG -240 480 USBoutput
SYMBOL SpecialFunctions\\modulate2 -1328 -160 R0
WINDOW 3 -35 -78 Left 2
SYMATTR InstName modulator1
SYMATTR Value mark=1000 space=0
SYMBOL SpecialFunctions\\modulate2 -1328 272 R0
WINDOW 3 -32 -69 Left 2
SYMATTR InstName modulator2
SYMATTR Value mark=1000 space=0
SYMBOL OpAmps\\OP07 -688 -128 R0
SYMATTR InstName U1
SYMBOL OpAmps\\OP07 -688 416 R0
SYMATTR InstName U2
SYMBOL res -928 -96 R90
WINDOW 0 0 56 VBottom 2
WINDOW 3 32 56 VTop 2
SYMATTR InstName R1
SYMATTR Value 10k
SYMBOL res -928 0 R90
WINDOW 0 0 56 VBottom 2
WINDOW 3 32 56 VTop 2
SYMATTR InstName R2
SYMATTR Value 10k
SYMBOL res -928 448 R90
WINDOW 0 0 56 VBottom 2
WINDOW 3 32 56 VTop 2
SYMATTR InstName R3
SYMATTR Value 10k
SYMBOL res -944 544 R90
WINDOW 0 0 56 VBottom 2
WINDOW 3 32 56 VTop 2
SYMATTR InstName R4
SYMATTR Value 10k
SYMBOL res -624 -240 R90
WINDOW 0 0 56 VBottom 2
WINDOW 3 32 56 VTop 2
SYMATTR InstName R5
SYMATTR Value 10k
SYMBOL res -624 304 R90
WINDOW 0 0 56 VBottom 2
WINDOW 3 32 56 VTop 2
SYMATTR InstName R6
SYMATTR Value 10k
SYMBOL voltage -1632 -48 R0
WINDOW 123 0 0 Left 0
WINDOW 39 0 0 Left 0
SYMATTR InstName Vm
SYMATTR Value SINE(0 1 100)
SYMBOL voltage -1632 416 R0
WINDOW 123 0 0 Left 0
WINDOW 39 0 0 Left 0
SYMATTR InstName Vmphaseshifted
SYMATTR Value SINE(0 1 100 0 0 90)
SYMBOL voltage -272 96 R0
SYMATTR InstName V3
SYMATTR Value 12
SYMBOL voltage -272 240 R0
SYMATTR InstName V4
SYMATTR Value 12
TEXT -1512 592 Left 2 !.tran 100m
